# benzene.mol2 — 4W52 BNZ ligand, generated for CG simulator MOL2 input test
@<TRIPOS>MOLECULE
BENZENE
 12 12 1 0 0
SMALL
USER_CHARGES
@<TRIPOS>ATOM
      1 C1        -32.9690    6.1960    2.8770 C.ar    1 BNZ  -0.1300
      2 C2        -32.9450    7.0460    3.9730 C.ar    1 BNZ  -0.1300
      3 C3        -33.7190    6.7980    5.1130 C.ar    1 BNZ  -0.1300
      4 C4        -34.5400    5.6800    5.1430 C.ar    1 BNZ  -0.1300
      5 C5        -34.5450    4.8250    4.0440 C.ar    1 BNZ  -0.1300
      6 C6        -33.7870    5.0690    2.9150 C.ar    1 BNZ  -0.1300
      7 H1        -32.3690    6.3880    1.9860 H       1 BNZ   0.1300
      8 H2        -32.3050    7.9200    3.9500 H       1 BNZ   0.1300
      9 H3        -33.7010    7.4600    5.9680 H       1 BNZ   0.1300
     10 H4        -35.1400    5.4880    6.0340 H       1 BNZ   0.1300
     11 H5        -35.1850    3.9510    4.0670 H       1 BNZ   0.1300
     12 H6        -33.8060    4.4010    2.0580 H       1 BNZ   0.1300
@<TRIPOS>BOND
     1    1    2 ar
     2    2    3 ar
     3    3    4 ar
     4    4    5 ar
     5    5    6 ar
     6    6    1 ar
     7    1    7 1
     8    2    8 1
     9    3    9 1
    10    4   10 1
    11    5   11 1
    12    6   12 1
